*2N5460
*Motorola Dep-Mode 20V 20mA 35.3ohm pkg:TO-92B 2,1,3
.MODEL 2N5460 PJF(VTO=-3.2 BETA=0.0017 LAMBDA=0.00563 RD=49.4 RS=44.5 
+ CGS=9E-12 CGD=4E-12 IS=1.95E-15 KF=1.104E-17 )
* Origin: Mcejfets.lib
