RPI_Versorgung
*SPICE Netlist generated by Advanced Sim server on 14.10.2025 07:47:21
.options MixedSimGenerated

.PLOT TRAN {v(OUT)} =PLOT(1) =AXIS(1)

*Selected Circuit Analyses:
.TRAN 20,00n 5,000u 0 20,00n

.END